
Circuit: .options temp=75

Doing analysis at TEMP = 27.000000 and TNOM = 27.000000


Initial Transient Solution
--------------------------

Node                                   Voltage
----                                   -------
vdd                                          1
in                                           1
out                                          0
vin#branch                                   0
vdd#branch                        -3.01814e-06


No. of Data Rows : 2232
             Transient Analysis

rdelay              =  1.522120e-11 targ=  2.777212e-10 trig=  2.625000e-10
fdelay              =  1.581210e-11 targ=  7.783121e-10 trig=  7.625000e-10

CPU time since last call: 0.183 seconds.

Total CPU time: 0.183 seconds.

Total DRAM available = 129150.011719 MB.
DRAM currently available = 49480.957031 MB.
Total ngspice program size = 16.449219 MB.
Resident set size = 1.858398 MB.
Shared ngspice pages = 678.000 kB.
Text (code) pages = 1.944336 MB.
Stack = 0 bytes.
Library pages = 6.230469 MB.

